/*--------------------------------*- C++ -*----------------------------------*\
  =========                 |
  \\      /  F ield         | OpenFOAM: The Open Source CFD Toolbox
   \\    /   O peration     | Website:  https://openfoam.org
    \\  /    A nd           | Version:  8
     \\/     M anipulation  |
\*---------------------------------------------------------------------------*/
FoamFile
{
    version     2.0;
    format      ascii;
    class       volScalarField;
    location    "0";
    object      T;
}
// * * * * * * * * * * * * * * * * * * * * * * * * * * * * * * * * * * * * * //

dimensions      [0 0 0 1 0];

internalField   uniform 363.15;

boundaryField
{
    inlet
    {
        type            fixedValue;
        value           uniform 383.15;
    }

    outlet
    {
        type            fixedValue;
        value           $internalField;
    }

    walls
    {
        type            symmetry;
    }

}

// ************************************************************************* //
